matpower/matpower-converter/src/test/resources/case300.xiidm
<?xml version="1.0" encoding="UTF-8"?>
<iidm:network xmlns:iidm="http://www.itesla_project.eu/schema/iidm/1_0" id="case300" caseDate="2020-01-01T00:00:00.000Z" forecastDistance="0" sourceFormat="MATPOWER">
    <iidm:substation id="S24">
        <iidm:voltageLevel id="VL1" nominalV="115.0" topologyKind="BUS_BREAKER">
            <iidm:busBreakerTopology>
                <iidm:bus id="B1" v="118.26599999999999" angle="5.95"/>
            </iidm:busBreakerTopology>
            <iidm:load id="LB1" loadType="UNDEFINED" p0="90.0" q0="49.0" bus="B1" connectableBus="B1"/>
        </iidm:voltageLevel>
        <iidm:voltageLevel id="VL2" nominalV="115.0" topologyKind="BUS_BREAKER">
            <iidm:busBreakerTopology>
                <iidm:bus id="B2" v="119.07100000000001" angle="7.74"/>
            </iidm:busBreakerTopology>
            <iidm:load id="LB2" loadType="UNDEFINED" p0="56.0" q0="15.0" bus="B2" connectableBus="B2"/>
        </iidm:voltageLevel>
        <iidm:voltageLevel id="VL3" nominalV="230.0" topologyKind="BUS_BREAKER">
            <iidm:busBreakerTopology>
                <iidm:bus id="B3" v="229.333" angle="6.64"/>
            </iidm:busBreakerTopology>
            <iidm:load id="LB3" loadType="UNDEFINED" p0="20.0" q0="0.0" bus="B3" connectableBus="B3"/>
        </iidm:voltageLevel>
        <iidm:voltageLevel id="VL4" nominalV="345.0" topologyKind="BUS_BREAKER">
            <iidm:busBreakerTopology>
                <iidm:bus id="B4" v="355.626" angle="4.71"/>
            </iidm:busBreakerTopology>
        </iidm:voltageLevel>
        <iidm:voltageLevel id="VL7001" nominalV="13.8" topologyKind="BUS_BREAKER">
            <iidm:busBreakerTopology>
                <iidm:bus id="B7001" v="14.49966" angle="10.79"/>
            </iidm:busBreakerTopology>
            <iidm:generator id="G7001-0" energySource="OTHER" minP="0.0" maxP="567.0" voltageRegulatorOn="true" targetP="467.0" targetV="1.0507" targetQ="0.0" bus="B7001" connectableBus="B7001">
                <iidm:minMaxReactiveLimits minQ="-210.0" maxQ="210.0"/>
            </iidm:generator>
        </iidm:voltageLevel>
        <iidm:voltageLevel id="VL7002" nominalV="13.8" topologyKind="BUS_BREAKER">
            <iidm:busBreakerTopology>
                <iidm:bus id="B7002" v="14.49966" angle="12.48"/>
            </iidm:busBreakerTopology>
            <iidm:generator id="G7002-0" energySource="OTHER" minP="0.0" maxP="723.0" voltageRegulatorOn="true" targetP="623.0" targetV="1.0507" targetQ="0.0" bus="B7002" connectableBus="B7002">
                <iidm:minMaxReactiveLimits minQ="-280.0" maxQ="280.0"/>
            </iidm:generator>
        </iidm:voltageLevel>
        <iidm:voltageLevel id="VL7003" nominalV="13.8" topologyKind="BUS_BREAKER">
            <iidm:busBreakerTopology>
                <iidm:bus id="B7003" v="14.245740000000001" angle="13.76"/>
            </iidm:busBreakerTopology>
            <iidm:generator id="G7003-0" energySource="OTHER" minP="0.0" maxP="1310.0" voltageRegulatorOn="true" targetP="1210.0" targetV="1.0323" targetQ="0.0" bus="B7003" connectableBus="B7003">
                <iidm:minMaxReactiveLimits minQ="-420.0" maxQ="420.0"/>
            </iidm:generator>
        </iidm:voltageLevel>
        <iidm:twoWindingsTransformer id="T3-1-0" r="0.0" x="687.6999999999999" g="0.0" b="0.0" ratedU1="217.81" ratedU2="115.0" bus1="B3" connectableBus1="B3" voltageLevelId1="VL3" bus2="B1" connectableBus2="B1" voltageLevelId2="VL1"/>
        <iidm:twoWindingsTransformer id="T7001-1-0" r="0.0" x="258.28425" g="0.0" b="0.0" ratedU1="13.8" ratedU2="115.0" bus1="B7001" connectableBus1="B7001" voltageLevelId1="VL7001" bus2="B1" connectableBus2="B1" voltageLevelId2="VL1"/>
        <iidm:twoWindingsTransformer id="T3-2-0" r="0.0" x="687.6999999999999" g="0.0" b="0.0" ratedU1="219.88" ratedU2="115.0" bus1="B3" connectableBus1="B3" voltageLevelId1="VL3" bus2="B2" connectableBus2="B2" voltageLevelId2="VL2"/>
        <iidm:twoWindingsTransformer id="T7002-2-0" r="13.225" x="193.085" g="0.0" b="0.0" ratedU1="13.8" ratedU2="115.0" bus1="B7002" connectableBus1="B7002" voltageLevelId1="VL7002" bus2="B2" connectableBus2="B2" voltageLevelId2="VL2"/>
        <iidm:twoWindingsTransformer id="T3-4-0" r="0.0" x="595.125" g="0.0" b="0.0" ratedU1="223.32999999999998" ratedU2="345.0" bus1="B3" connectableBus1="B3" voltageLevelId1="VL3" bus2="B4" connectableBus2="B4" voltageLevelId2="VL4"/>
        <iidm:twoWindingsTransformer id="T7003-3-0" r="0.0" x="557.566" g="0.0" b="0.0" ratedU1="13.8" ratedU2="230.0" bus1="B7003" connectableBus1="B7003" voltageLevelId1="VL7003" bus2="B3" connectableBus2="B3" voltageLevelId2="VL3"/>
    </iidm:substation>
    <iidm:substation id="S27">
        <iidm:voltageLevel id="VL5" nominalV="115.0" topologyKind="BUS_BREAKER">
            <iidm:busBreakerTopology>
                <iidm:bus id="B5" v="117.19649999999999" angle="4.68"/>
            </iidm:busBreakerTopology>
            <iidm:load id="LB5" loadType="UNDEFINED" p0="353.0" q0="130.0" bus="B5" connectableBus="B5"/>
        </iidm:voltageLevel>
        <iidm:voltageLevel id="VL6" nominalV="115.0" topologyKind="BUS_BREAKER">
            <iidm:busBreakerTopology>
                <iidm:bus id="B6" v="118.588" angle="6.99"/>
            </iidm:busBreakerTopology>
            <iidm:load id="LB6" loadType="UNDEFINED" p0="120.0" q0="41.0" bus="B6" connectableBus="B6"/>
        </iidm:voltageLevel>
        <iidm:voltageLevel id="VL7" nominalV="230.0" topologyKind="BUS_BREAKER">
            <iidm:busBreakerTopology>
                <iidm:bus id="B7" v="228.482" angle="6.19"/>
            </iidm:busBreakerTopology>
        </iidm:voltageLevel>
        <iidm:twoWindingsTransformer id="T7-5-0" r="0.0" x="515.775" g="0.0" b="0.0" ratedU1="218.04" ratedU2="115.0" bus1="B7" connectableBus1="B7" voltageLevelId1="VL7" bus2="B5" connectableBus2="B5" voltageLevelId2="VL5"/>
        <iidm:twoWindingsTransformer id="T7-6-0" r="0.0" x="515.775" g="0.0" b="0.0" ratedU1="220.57" ratedU2="115.0" bus1="B7" connectableBus1="B7" voltageLevelId1="VL7" bus2="B6" connectableBus2="B6" voltageLevelId2="VL6"/>
    </iidm:substation>
    <iidm:substation id="S31">
        <iidm:voltageLevel id="VL8" nominalV="115.0" topologyKind="BUS_BREAKER">
            <iidm:busBreakerTopology>
                <iidm:bus id="B8" v="116.75950000000002" angle="2.4"/>
            </iidm:busBreakerTopology>
            <iidm:generator id="G8-0" energySource="OTHER" minP="0.0" maxP="100.0" voltageRegulatorOn="true" targetP="0.0" targetV="1.0153" targetQ="0.0" bus="B8" connectableBus="B8">
                <iidm:minMaxReactiveLimits minQ="-10.0" maxQ="10.0"/>
            </iidm:generator>
            <iidm:load id="LB8" loadType="UNDEFINED" p0="63.0" q0="14.0" bus="B8" connectableBus="B8"/>
        </iidm:voltageLevel>
    </iidm:substation>
    <iidm:substation id="S30">
        <iidm:voltageLevel id="VL9" nominalV="115.0" topologyKind="BUS_BREAKER">
            <iidm:busBreakerTopology>
                <iidm:bus id="B9" v="115.391" angle="2.85"/>
            </iidm:busBreakerTopology>
            <iidm:load id="LB9" loadType="UNDEFINED" p0="96.0" q0="43.0" bus="B9" connectableBus="B9"/>
        </iidm:voltageLevel>
    </iidm:substation>
    <iidm:substation id="S138">
        <iidm:voltageLevel id="VL10" nominalV="230.0" topologyKind="BUS_BREAKER">
            <iidm:busBreakerTopology>
                <iidm:bus id="B10" v="234.715" angle="1.35"/>
            </iidm:busBreakerTopology>
            <iidm:generator id="G10-0" energySource="OTHER" minP="0.0" maxP="100.0" voltageRegulatorOn="true" targetP="0.0" targetV="1.0205" targetQ="0.0" bus="B10" connectableBus="B10">
                <iidm:minMaxReactiveLimits minQ="-20.0" maxQ="20.0"/>
            </iidm:generator>
            <iidm:load id="LB10" loadType="UNDEFINED" p0="153.0" q0="33.0" bus="B10" connectableBus="B10"/>
        </iidm:voltageLevel>
        <iidm:voltageLevel id="VL11" nominalV="115.0" topologyKind="BUS_BREAKER">
            <iidm:busBreakerTopology>
                <iidm:bus id="B11" v="115.6555" angle="2.46"/>
            </iidm:busBreakerTopology>
            <iidm:load id="LB11" loadType="UNDEFINED" p0="83.0" q0="21.0" bus="B11" connectableBus="B11"/>
        </iidm:voltageLevel>
        <iidm:voltageLevel id="VL12" nominalV="230.0" topologyKind="BUS_BREAKER">
            <iidm:busBreakerTopology>
                <iidm:bus id="B12" v="229.402" angle="5.21"/>
            </iidm:busBreakerTopology>
        </iidm:voltageLevel>
        <iidm:voltageLevel id="VL7011" nominalV="13.8" topologyKind="BUS_BREAKER">
            <iidm:busBreakerTopology>
                <iidm:bus id="B7011" v="14.0001" angle="4.99"/>
            </iidm:busBreakerTopology>
            <iidm:generator id="G7011-0" energySource="OTHER" minP="0.0" maxP="334.0" voltageRegulatorOn="true" targetP="234.0" targetV="1.0145" targetQ="0.0" bus="B7011" connectableBus="B7011">
                <iidm:minMaxReactiveLimits minQ="-100.0" maxQ="100.0"/>
            </iidm:generator>
        </iidm:voltageLevel>
        <iidm:voltageLevel id="VL7012" nominalV="13.8" topologyKind="BUS_BREAKER">
            <iidm:busBreakerTopology>
                <iidm:bus id="B7012" v="14.49966" angle="11.57"/>
            </iidm:busBreakerTopology>
            <iidm:generator id="G7012-0" energySource="OTHER" minP="0.0" maxP="472.0" voltageRegulatorOn="true" targetP="372.0" targetV="1.0507" targetQ="0.0" bus="B7012" connectableBus="B7012">
                <iidm:minMaxReactiveLimits minQ="-224.0" maxQ="224.0"/>
            </iidm:generator>
        </iidm:voltageLevel>
        <iidm:twoWindingsTransformer id="T10-11-0" r="0.0" x="1177.0249999999999" g="0.0" b="0.0" ratedU1="240.58" ratedU2="115.0" bus1="B10" connectableBus1="B10" voltageLevelId1="VL10" bus2="B11" connectableBus2="B11" voltageLevelId2="VL11"/>
        <iidm:twoWindingsTransformer id="T12-10-0" r="0.0" x="2803.7" g="0.0" b="0.0" ratedU1="226.54999999999998" ratedU2="230.0" bus1="B12" connectableBus1="B12" voltageLevelId1="VL12" bus2="B10" connectableBus2="B10" voltageLevelId2="VL10"/>
        <iidm:twoWindingsTransformer id="T7011-11-0" r="0.0" x="254.31675" g="0.0" b="0.0" ratedU1="13.8" ratedU2="115.0" bus1="B7011" connectableBus1="B7011" voltageLevelId1="VL7011" bus2="B11" connectableBus2="B11" voltageLevelId2="VL11"/>
        <iidm:twoWindingsTransformer id="T7012-12-0" r="0.0" x="1650.48" g="0.0" b="0.0" ratedU1="13.8" ratedU2="230.0" bus1="B7012" connectableBus1="B7012" voltageLevelId1="VL7012" bus2="B12" connectableBus2="B12" voltageLevelId2="VL12"/>
    </iidm:substation>
    <iidm:substation id="S140">
        <iidm:voltageLevel id="VL13" nominalV="115.0" topologyKind="BUS_BREAKER">
            <iidm:busBreakerTopology>
                <iidm:bus id="B13" v="114.7355" angle="-0.55"/>
            </iidm:busBreakerTopology>
            <iidm:load id="LB13" loadType="UNDEFINED" p0="58.0" q0="10.0" bus="B13" connectableBus="B13"/>
        </iidm:voltageLevel>
    </iidm:substation>
    <iidm:substation id="S141">
        <iidm:voltageLevel id="VL14" nominalV="115.0" topologyKind="BUS_BREAKER">
            <iidm:busBreakerTopology>
                <iidm:bus id="B14" v="114.8965" angle="-4.81"/>
            </iidm:busBreakerTopology>
            <iidm:load id="LB14" loadType="UNDEFINED" p0="160.0" q0="60.0" bus="B14" connectableBus="B14"/>
        </iidm:voltageLevel>
    </iidm:substation>
    <iidm:substation id="S142">
        <iidm:voltageLevel id="VL15" nominalV="115.0" topologyKind="BUS_BREAKER">
            <iidm:busBreakerTopology>
                <iidm:bus id="B15" v="118.9445" angle="-8.59"/>
            </iidm:busBreakerTopology>
            <iidm:load id="LB15" loadType="UNDEFINED" p0="126.7" q0="23.0" bus="B15" connectableBus="B15"/>
        </iidm:voltageLevel>
        <iidm:voltageLevel id="VL16" nominalV="345.0" topologyKind="BUS_BREAKER">
            <iidm:busBreakerTopology>
                <iidm:bus id="B16" v="355.8675" angle="-2.65"/>
            </iidm:busBreakerTopology>
        </iidm:voltageLevel>
        <iidm:voltageLevel id="VL17" nominalV="115.0" topologyKind="BUS_BREAKER">
            <iidm:busBreakerTopology>
                <iidm:bus id="B17" v="122.4635" angle="-13.1"/>
            </iidm:busBreakerTopology>
            <iidm:load id="LB17" loadType="UNDEFINED" p0="561.0" q0="220.0" bus="B17" connectableBus="B17"/>
        </iidm:voltageLevel>
        <iidm:voltageLevel id="VL7017" nominalV="13.8" topologyKind="BUS_BREAKER">
            <iidm:busBreakerTopology>
                <iidm:bus id="B7017" v="14.49966" angle="-10.47"/>
            </iidm:busBreakerTopology>
            <iidm:generator id="G7017-0" energySource="OTHER" minP="0.0" maxP="430.0" voltageRegulatorOn="true" targetP="330.0" targetV="1.0507" targetQ="0.0" bus="B7017" connectableBus="B7017">
                <iidm:minMaxReactiveLimits minQ="0.0" maxQ="350.0"/>
            </iidm:generator>
        </iidm:voltageLevel>
        <iidm:twoWindingsTransformer id="T15-17-0" r="256.565" x="411.2975" g="0.0" b="0.0" ratedU1="109.9515" ratedU2="115.0" bus1="B15" connectableBus1="B15" voltageLevelId1="VL15" bus2="B17" connectableBus2="B17" voltageLevelId2="VL17"/>
        <iidm:twoWindingsTransformer id="T16-15-0" r="13.225" x="502.55" g="0.0" b="0.0" ratedU1="334.995" ratedU2="115.0" bus1="B16" connectableBus1="B16" voltageLevelId1="VL16" bus2="B15" connectableBus2="B15" voltageLevelId2="VL15"/>
        <iidm:twoWindingsTransformer id="T7017-17-0" r="0.0" x="218.7415" g="0.0" b="0.0" ratedU1="12.9996" ratedU2="115.0" bus1="B7017" connectableBus1="B7017" voltageLevelId1="VL7017" bus2="B17" connectableBus2="B17" voltageLevelId2="VL17"/>
    </iidm:substation>
    <iidm:substation id="S143">
        <iidm:voltageLevel id="VL19" nominalV="230.0" topologyKind="BUS_BREAKER">
            <iidm:busBreakerTopology>
                <iidm:bus id="B19" v="225.85999999999999" angle="1.08"/>
            </iidm:busBreakerTopology>
        </iidm:voltageLevel>
    </iidm:substation>
    <iidm:substation id="S121">
        <iidm:voltageLevel id="VL20" nominalV="115.0" topologyKind="BUS_BREAKER">
            <iidm:busBreakerTopology>
                <iidm:bus id="B20" v="115.11499999999998" angle="-2.46"/>
            </iidm:busBreakerTopology>
            <iidm:generator id="G20-0" energySource="OTHER" minP="0.0" maxP="100.0" voltageRegulatorOn="true" targetP="0.0" targetV="1.001" targetQ="0.0" bus="B20" connectableBus="B20">
                <iidm:minMaxReactiveLimits minQ="-20.0" maxQ="20.0"/>
            </iidm:generator>
            <iidm:load id="LB20" loadType="UNDEFINED" p0="605.0" q0="120.0" bus="B20" connectableBus="B20"/>
        </iidm:voltageLevel>
        <iidm:voltageLevel id="VL21" nominalV="230.0" topologyKind="BUS_BREAKER">
            <iidm:busBreakerTopology>
                <iidm:bus id="B21" v="224.296" angle="1.62"/>
            </iidm:busBreakerTopology>
            <iidm:load id="LB21" loadType="UNDEFINED" p0="77.0" q0="1.0" bus="B21" connectableBus="B21"/>
        </iidm:voltageLevel>
        <iidm:twoWindingsTransformer id="T21-20-0" r="0.0" x="185.15" g="0.0" b="0.0" ratedU1="218.95999999999998" ratedU2="115.0" bus1="B21" connectableBus1="B21" voltageLevelId1="VL21" bus2="B20" connectableBus2="B20" voltageLevelId2="VL20"/>
    </iidm:substation>
    <iidm:substation id="S125">
        <iidm:voltageLevel id="VL22" nominalV="115.0" topologyKind="BUS_BREAKER">
            <iidm:busBreakerTopology>
                <iidm:bus id="B22" v="114.5745" angle="-1.97"/>
            </iidm:busBreakerTopology>
            <iidm:load id="LB22" loadType="UNDEFINED" p0="81.0" q0="23.0" bus="B22" connectableBus="B22"/>
        </iidm:voltageLevel>
    </iidm:substation>
    <iidm:substation id="S116">
        <iidm:voltageLevel id="VL23" nominalV="115.0" topologyKind="BUS_BREAKER">
            <iidm:busBreakerTopology>
                <iidm:bus id="B23" v="120.7615" angle="3.94"/>
            </iidm:busBreakerTopology>
            <iidm:load id="LB23" loadType="UNDEFINED" p0="21.0" q0="7.0" bus="B23" connectableBus="B23"/>
        </iidm:voltageLevel>
        <iidm:voltageLevel id="VL24" nominalV="230.0" topologyKind="BUS_BREAKER">
            <iidm:busBreakerTopology>
                <iidm:bus id="B24" v="231.311" angle="6.02"/>
            </iidm:busBreakerTopology>
        </iidm:voltageLevel>
        <iidm:voltageLevel id="VL7023" nominalV="13.8" topologyKind="BUS_BREAKER">
            <iidm:busBreakerTopology>
                <iidm:bus id="B7023" v="14.49966" angle="6.15"/>
            </iidm:busBreakerTopology>
            <iidm:generator id="G7023-0" energySource="OTHER" minP="0.0" maxP="285.0" voltageRegulatorOn="true" targetP="185.0" targetV="1.0507" targetQ="0.0" bus="B7023" connectableBus="B7023">
                <iidm:minMaxReactiveLimits minQ="0.0" maxQ="120.0"/>
            </iidm:generator>
        </iidm:voltageLevel>
        <iidm:voltageLevel id="VL7024" nominalV="13.8" topologyKind="BUS_BREAKER">
            <iidm:busBreakerTopology>
                <iidm:bus id="B7024" v="14.200199999999999" angle="12.6"/>
            </iidm:busBreakerTopology>
            <iidm:generator id="G7024-0" energySource="OTHER" minP="0.0" maxP="510.0" voltageRegulatorOn="true" targetP="410.0" targetV="1.029" targetQ="0.0" bus="B7024" connectableBus="B7024">
                <iidm:minMaxReactiveLimits minQ="-224.0" maxQ="224.0"/>
            </iidm:generator>
        </iidm:voltageLevel>
        <iidm:twoWindingsTransformer id="T24-23-0" r="0.0" x="846.4" g="0.0" b="0.0" ratedU1="216.89" ratedU2="115.0" bus1="B24" connectableBus1="B24" voltageLevelId1="VL24" bus2="B23" connectableBus2="B23" voltageLevelId2="VL23"/>
        <iidm:twoWindingsTransformer id="T7023-23-0" r="0.0" x="304.175" g="0.0" b="0.0" ratedU1="13.8" ratedU2="115.0" bus1="B7023" connectableBus1="B7023" voltageLevelId1="VL7023" bus2="B23" connectableBus2="B23" voltageLevelId2="VL23"/>
        <iidm:twoWindingsTransformer id="T7024-24-0" r="0.0" x="1528.81" g="0.0" b="0.0" ratedU1="13.8" ratedU2="230.0" bus1="B7024" connectableBus1="B7024" voltageLevelId1="VL7024" bus2="B24" connectableBus2="B24" voltageLevelId2="VL24"/>
    </iidm:substation>
    <iidm:substation id="S117">
        <iidm:voltageLevel id="VL25" nominalV="115.0" topologyKind="BUS_BREAKER">
            <iidm:busBreakerTopology>
                <iidm:bus id="B25" v="117.69100000000002" angle="1.44"/>
            </iidm:busBreakerTopology>
            <iidm:load id="LB25" loadType="UNDEFINED" p0="45.0" q0="12.0" bus="B25" connectableBus="B25"/>
        </iidm:voltageLevel>
    </iidm:substation>
    <iidm:substation id="S118">
        <iidm:voltageLevel id="VL26" nominalV="115.0" topologyKind="BUS_BREAKER">
            <iidm:busBreakerTopology>
                <iidm:bus id="B26" v="114.839" angle="-1.73"/>
            </iidm:busBreakerTopology>
            <iidm:load id="LB26" loadType="UNDEFINED" p0="28.0" q0="9.0" bus="B26" connectableBus="B26"/>
        </iidm:voltageLevel>
    </iidm:substation>
    <iidm:substation id="S119">
        <iidm:voltageLevel id="VL27" nominalV="115.0" topologyKind="BUS_BREAKER">
            <iidm:busBreakerTopology>
                <iidm:bus id="B27" v="112.125" angle="-4.9"/>
            </iidm:busBreakerTopology>
            <iidm:load id="LB27" loadType="UNDEFINED" p0="69.0" q0="13.0" bus="B27" connectableBus="B27"/>
        </iidm:voltageLevel>
    </iidm:substation>
    <iidm:substation id="S171">
        <iidm:voltageLevel id="VL33" nominalV="115.0" topologyKind="BUS_BREAKER">
            <iidm:busBreakerTopology>
                <iidm:bus id="B33" v="117.806" angle="-12.02"/>
            </iidm:busBreakerTopology>
            <iidm:load id="LB33" loadType="UNDEFINED" p0="55.0" q0="6.0" bus="B33" connectableBus="B33"/>
        </iidm:voltageLevel>
    </iidm:substation>
    <iidm:substation id="S173">
        <iidm:voltageLevel id="VL34" nominalV="345.0" topologyKind="BUS_BREAKER">
            <iidm:busBreakerTopology>
                <iidm:bus id="B34" v="359.283" angle="-7.94"/>
            </iidm:busBreakerTopology>
        </iidm:voltageLevel>
    </iidm:substation>
    <iidm:substation id="S166">
        <iidm:voltageLevel id="VL35" nominalV="115.0" topologyKind="BUS_BREAKER">
            <iidm:busBreakerTopology>
                <iidm:bus id="B35" v="112.2055" angle="-25.72"/>
            </iidm:busBreakerTopology>
        </iidm:voltageLevel>
        <iidm:voltageLevel id="VL36" nominalV="230.0" topologyKind="BUS_BREAKER">
            <iidm:busBreakerTopology>
                <iidm:bus id="B36" v="230.25300000000001" angle="-22.59"/>
            </iidm:busBreakerTopology>
        </iidm:voltageLevel>
        <iidm:twoWindingsTransformer id="T36-35-0" r="0.0" x="621.575" g="0.0" b="0.0" ratedU1="232.3" ratedU2="115.0" bus1="B36" connectableBus1="B36" voltageLevelId1="VL36" bus2="B35" connectableBus2="B35" voltageLevelId2="VL35"/>
    </iidm:substation>
    <iidm:substation id="S3">
        <iidm:voltageLevel id="VL37" nominalV="115.0" topologyKind="BUS_BREAKER">
            <iidm:busBreakerTopology>
                <iidm:bus id="B37" v="117.3115" angle="-11.23"/>
            </iidm:busBreakerTopology>
            <iidm:load id="LB37" loadType="UNDEFINED" p0="85.0" q0="32.0" bus="B37" connectableBus="B37"/>
        </iidm:voltageLevel>
        <iidm:voltageLevel id="VL9001" nominalV="115.0" topologyKind="BUS_BREAKER">
            <iidm:busBreakerTopology>
                <iidm:bus id="B9001" v="116.3455" angle="-11.25"/>
            </iidm:busBreakerTopology>
        </iidm:voltageLevel>
        <iidm:voltageLevel id="VL9006" nominalV="6.6" topologyKind="BUS_BREAKER">
            <iidm:busBreakerTopology>
                <iidm:bus id="B9006" v="6.619139999999999" angle="-17.42"/>
            </iidm:busBreakerTopology>
        </iidm:voltageLevel>
        <iidm:voltageLevel id="VL9012" nominalV="6.6" topologyKind="BUS_BREAKER">
            <iidm:busBreakerTopology>
                <iidm:bus id="B9012" v="6.61518" angle="-17.27"/>
            </iidm:busBreakerTopology>
        </iidm:voltageLevel>
        <iidm:twoWindingsTransformer id="T37-9001-0" r="0.7935" x="6.0835" g="0.0" b="0.0" ratedU1="115.943" ratedU2="115.0" bus1="B37" connectableBus1="B37" voltageLevelId1="VL37" bus2="B9001" connectableBus2="B9001" voltageLevelId2="VL9001"/>
        <iidm:twoWindingsTransformer id="T9001-9006-0" r="1.0624283999999997" x="19.027879199999997" g="0.0" b="0.0" ratedU1="111.182" ratedU2="6.6" bus1="B9001" connectableBus1="B9001" voltageLevelId1="VL9001" bus2="B9006" connectableBus2="B9006" voltageLevelId2="VL9006"/>
        <iidm:twoWindingsTransformer id="T9001-9012-0" r="1.5786144" x="28.2695688" g="0.0" b="0.0" ratedU1="112.654" ratedU2="6.6" bus1="B9001" connectableBus1="B9001" voltageLevelId1="VL9001" bus2="B9012" connectableBus2="B9012" voltageLevelId2="VL9012"/>
    </iidm:substation>
    <iidm:substation id="S167">
        <iidm:voltageLevel id="VL38" nominalV="115.0" topologyKind="BUS_BREAKER">
            <iidm:busBreakerTopology>
                <iidm:bus id="B38" v="117.323" angle="-12.56"/>
            </iidm:busBreakerTopology>
            <iidm:load id="LB38" loadType="UNDEFINED" p0="155.0" q0="18.0" bus="B38" connectableBus="B38"/>
        </iidm:voltageLevel>
    </iidm:substation>
    <iidm:substation id="S168">
        <iidm:voltageLevel id="VL39" nominalV="345.0" topologyKind="BUS_BREAKER">
            <iidm:busBreakerTopology>
                <iidm:bus id="B39" v="363.45750000000004" angle="-5.81"/>
            </iidm:busBreakerTopology>
        </iidm:voltageLevel>
        <iidm:voltageLevel id="VL7039" nominalV="20.0" topologyKind="BUS_BREAKER">
            <iidm:busBreakerTopology>
                <iidm:bus id="B7039" v="21.0" angle="2.11"/>
            </iidm:busBreakerTopology>
            <iidm:generator id="G7039-0" energySource="OTHER" minP="0.0" maxP="600.0" voltageRegulatorOn="true" targetP="500.0" targetV="1.05" targetQ="0.0" bus="B7039" connectableBus="B7039">
                <iidm:minMaxReactiveLimits minQ="-200.0" maxQ="200.0"/>
            </iidm:generator>
        </iidm:voltageLevel>
        <iidm:twoWindingsTransformer id="T7039-39-0" r="0.0" x="3759.99975" g="0.0" b="0.0" ratedU1="19.3" ratedU2="345.0" bus1="B7039" connectableBus1="B7039" voltageLevelId1="VL7039" bus2="B39" connectableBus2="B39" voltageLevelId2="VL39"/>
    </iidm:substation>
    <iidm:substation id="S152">
        <iidm:voltageLevel id="VL40" nominalV="115.0" topologyKind="BUS_BREAKER">
            <iidm:busBreakerTopology>
                <iidm:bus id="B40" v="117.48400000000001" angle="-12.78"/>
            </iidm:busBreakerTopology>
            <iidm:load id="LB40" loadType="UNDEFINED" p0="46.0" q0="-21.0" bus="B40" connectableBus="B40"/>
        </iidm:voltageLevel>
    </iidm:substation>
    <iidm:substation id="S153">
        <iidm:voltageLevel id="VL41" nominalV="115.0" topologyKind="BUS_BREAKER">
            <iidm:busBreakerTopology>
                <iidm:bus id="B41" v="118.35799999999999" angle="-10.45"/>
            </iidm:busBreakerTopology>
            <iidm:load id="LB41" loadType="UNDEFINED" p0="86.0" q0="0.0" bus="B41" connectableBus="B41"/>
        </iidm:voltageLevel>
    </iidm:substation>
    <iidm:substation id="S155">
        <iidm:voltageLevel id="VL42" nominalV="345.0" topologyKind="BUS_BREAKER">
            <iidm:busBreakerTopology>
                <iidm:bus id="B42" v="360.45599999999996" angle="-7.44"/>
            </iidm:busBreakerTopology>
        </iidm:voltageLevel>
    </iidm:substation>
    <iidm:substation id="S156">
        <iidm:voltageLevel id="VL43" nominalV="115.0" topologyKind="BUS_BREAKER">
            <iidm:busBreakerTopology>
                <iidm:bus id="B43" v="115.06899999999999" angle="-16.79"/>
            </iidm:busBreakerTopology>
            <iidm:load id="LB43" loadType="UNDEFINED" p0="39.0" q0="9.0" bus="B43" connectableBus="B43"/>
        </iidm:voltageLevel>
    </iidm:substation>
    <iidm:substation id="S148">
        <iidm:voltageLevel id="VL44" nominalV="115.0" topologyKind="BUS_BREAKER">
            <iidm:busBreakerTopology>
                <iidm:bus id="B44" v="115.98899999999999" angle="-17.47"/>
            </iidm:busBreakerTopology>
            <iidm:load id="LB44" loadType="UNDEFINED" p0="195.0" q0="29.0" bus="B44" connectableBus="B44"/>
        </iidm:voltageLevel>
        <iidm:voltageLevel id="VL45" nominalV="230.0" topologyKind="BUS_BREAKER">
            <iidm:busBreakerTopology>
                <iidm:bus id="B45" v="234.94500000000002" angle="-14.74"/>
            </iidm:busBreakerTopology>
        </iidm:voltageLevel>
        <iidm:voltageLevel id="VL46" nominalV="345.0" topologyKind="BUS_BREAKER">
            <iidm:busBreakerTopology>
                <iidm:bus id="B46" v="356.868" angle="-11.75"/>
            </iidm:busBreakerTopology>
        </iidm:voltageLevel>
        <iidm:voltageLevel id="VL7044" nominalV="13.8" topologyKind="BUS_BREAKER">
            <iidm:busBreakerTopology>
                <iidm:bus id="B7044" v="14.0001" angle="-13.92"/>
            </iidm:busBreakerTopology>
            <iidm:generator id="G7044-0" energySource="OTHER" minP="0.0" maxP="137.0" voltageRegulatorOn="true" targetP="37.0" targetV="1.0145" targetQ="0.0" bus="B7044" connectableBus="B7044">
                <iidm:minMaxReactiveLimits minQ="0.0" maxQ="42.0"/>
            </iidm:generator>
        </iidm:voltageLevel>
        <iidm:twoWindingsTransformer id="T45-44-0" r="0.0" x="264.5" g="0.0" b="0.0" ratedU1="231.84" ratedU2="115.0" bus1="B45" connectableBus1="B45" voltageLevelId1="VL45" bus2="B44" connectableBus2="B44" voltageLevelId2="VL44"/>
        <iidm:twoWindingsTransformer id="T7044-44-0" r="0.0" x="2404.43725" g="0.0" b="0.0" ratedU1="12.9996" ratedU2="115.0" bus1="B7044" connectableBus1="B7044" voltageLevelId1="VL7044" bus2="B44" connectableBus2="B44" voltageLevelId2="VL44"/>
        <iidm:twoWindingsTransformer id="T45-46-0" r="0.0" x="2499.525" g="0.0" b="0.0" ratedU1="230.0" ratedU2="345.0" bus1="B45" connectableBus1="B45" voltageLevelId1="VL45" bus2="B46" connectableBus2="B46" voltageLevelId2="VL46"/>
    </iidm:substation>
    <iidm:substation id="S149">
        <iidm:voltageLevel id="VL47" nominalV="115.0" topologyKind="BUS_BREAKER">
            <iidm:busBreakerTopology>
                <iidm:bus id="B47" v="112.4355" angle="-23.17"/>
            </iidm:busBreakerTopology>
            <iidm:load id="LB47" loadType="UNDEFINED" p0="58.0" q0="11.8" bus="B47" connectableBus="B47"/>
        </iidm:voltageLevel>
    </iidm:substation>
    <iidm:substation id="S150">
        <iidm:voltageLevel id="VL48" nominalV="115.0" topologyKind="BUS_BREAKER">
            <iidm:busBreakerTopology>
                <iidm:bus id="B48" v="115.2185" angle="-16.09"/>
            </iidm:busBreakerTopology>
            <iidm:load id="LB48" loadType="UNDEFINED" p0="41.0" q0="19.0" bus="B48" connectableBus="B48"/>
        </iidm:voltageLevel>
    </iidm:substation>
    <iidm:substation id="S151">
        <iidm:voltageLevel id="VL49" nominalV="115.0" topologyKind="BUS_BREAKER">
            <iidm:busBreakerTopology>
                <iidm:bus id="B49" v="120.4625" angle="-2.95"/>
            </iidm:busBreakerTopology>
            <iidm:load id="LB49" loadType="UNDEFINED" p0="92.0" q0="26.0" bus="B49" connectableBus="B49"/>
        </iidm:voltageLevel>
        <iidm:voltageLevel id="VL7049" nominalV="13.8" topologyKind="BUS_BREAKER">
            <iidm:busBreakerTopology>
                <iidm:bus id="B7049" v="14.49966" angle="0.0"/>
            </iidm:busBreakerTopology>
            <iidm:generator id="G7049-0" energySource="OTHER" minP="0.0" maxP="2399.005" voltageRegulatorOn="true" targetP="0.0" targetV="1.0507" targetQ="0.0" bus="B7049" connectableBus="B7049">
                <iidm:minMaxReactiveLimits minQ="0.0" maxQ="10.0"/>
            </iidm:generator>
        </iidm:voltageLevel>
        <iidm:twoWindingsTransformer id="T7049-49-0" r="0.0" x="163.98999999999998" g="0.0" b="0.0" ratedU1="13.8" ratedU2="115.0" bus1="B7049" connectableBus1="B7049" voltageLevelId1="VL7049" bus2="B49" connectableBus2="B49" voltageLevelId2="VL49"/>
    </iidm:substation>
    <iidm:substation id="S189">
        <iidm:voltageLevel id="VL51" nominalV="115.0" topologyKind="BUS_BREAKER">
            <iidm:busBreakerTopology>
                <iidm:bus id="B51" v="117.90950000000001" angle="-8.15"/>
            </iidm:busBreakerTopology>
            <iidm:load id="LB51" loadType="UNDEFINED" p0="-5.0" q0="5.0" bus="B51" connectableBus="B51"/>
        </iidm:voltageLevel>
    </iidm:substation>
    <iidm:substation id="S191">
        <iidm:voltageLevel id="VL52" nominalV="115.0" topologyKind="BUS_BREAKER">
            <iidm:busBreakerTopology>
                <iidm:bus id="B52" v="114.7585" angle="-11.86"/>
            </iidm:busBreakerTopology>
            <iidm:load id="LB52" loadType="UNDEFINED" p0="61.0" q0="28.0" bus="B52" connectableBus="B52"/>
        </iidm:voltageLevel>
    </iidm:substation>
    <iidm:substation id="S192">
        <iidm:voltageLevel id="VL53" nominalV="115.0" topologyKind="BUS_BREAKER">
            <iidm:busBreakerTopology>
                <iidm:bus id="B53" v="114.5285" angle="-17.6"/>
            </iidm:busBreakerTopology>
            <iidm:load id="LB53" loadType="UNDEFINED" p0="69.0" q0="3.0" bus="B53" connectableBus="B53"/>
        </iidm:voltageLevel>
    </iidm:substation>
    <iidm:substation id="S193">
        <iidm:voltageLevel id="VL54" nominalV="115.0" topologyKind="BUS_BREAKER">
            <iidm:busBreakerTopology>
                <iidm:bus id="B54" v="115.57499999999999" angle="-16.25"/>
            </iidm:busBreakerTopology>
            <iidm:load id="LB54" loadType="UNDEFINED" p0="10.0" q0="1.0" bus="B54" connectableBus="B54"/>
        </iidm:voltageLevel>
    </iidm:substation>
    <iidm:substation id="S185">
        <iidm:voltageLevel id="VL55" nominalV="115.0" topologyKind="BUS_BREAKER">
            <iidm:busBreakerTopology>
                <iidm:bus id="B55" v="116.725" angle="-12.21"/>
            </iidm:busBreakerTopology>
            <iidm:load id="LB55" loadType="UNDEFINED" p0="22.0" q0="10.0" bus="B55" connectableBus="B55"/>
        </iidm:voltageLevel>
        <iidm:voltageLevel id="VL7055" nominalV="13.8" topologyKind="BUS_BREAKER">
            <iidm:busBreakerTopology>
                <iidm:bus id="B7055" v="13.754460000000002" angle="-7.5"/>
            </iidm:busBreakerTopology>
            <iidm:generator id="G7055-0" energySource="OTHER" minP="0.0" maxP="145.0" voltageRegulatorOn="true" targetP="45.0" targetV="0.9967" targetQ="0.0" bus="B7055" connectableBus="B7055">
                <iidm:minMaxReactiveLimits minQ="0.0" maxQ="25.0"/>
            </iidm:generator>
        </iidm:voltageLevel>
        <iidm:twoWindingsTransformer id="T7055-55-0" r="0.0" x="2593.02575" g="0.0" b="0.0" ratedU1="12.9996" ratedU2="115.0" bus1="B7055" connectableBus1="B7055" voltageLevelId1="VL7055" bus2="B55" connectableBus2="B55" voltageLevelId2="VL55"/>
    </iidm:substation>
    <iidm:substation id="S186">
        <iidm:voltageLevel id="VL57" nominalV="115.0" topologyKind="BUS_BREAKER">
            <iidm:busBreakerTopology>
                <iidm:bus id="B57" v="118.8525" angle="-8.0"/>
            </iidm:busBreakerTopology>
            <iidm:load id="LB57" loadType="UNDEFINED" p0="98.0" q0="20.0" bus="B57" connectableBus="B57"/>
        </iidm:voltageLevel>
        <iidm:voltageLevel id="VL7057" nominalV="13.8" topologyKind="BUS_BREAKER">
            <iidm:busBreakerTopology>
                <iidm:bus id="B7057" v="14.092560000000002" angle="-3.44"/>
            </iidm:busBreakerTopology>
            <iidm:generator id="G7057-0" energySource="OTHER" minP="0.0" maxP="265.0" voltageRegulatorOn="true" targetP="165.0" targetV="1.0212" targetQ="0.0" bus="B7057" connectableBus="B7057">
                <iidm:minMaxReactiveLimits minQ="-90.0" maxQ="90.0"/>
            </iidm:generator>
        </iidm:voltageLevel>
        <iidm:twoWindingsTransformer id="T7057-57-0" r="0.0" x="707.1407499999999" g="0.0" b="0.0" ratedU1="13.11" ratedU2="115.0" bus1="B7057" connectableBus1="B7057" voltageLevelId1="VL7057" bus2="B57" connectableBus2="B57" voltageLevelId2="VL57"/>
    </iidm:substation>
    <iidm:substation id="S187">
        <iidm:voltageLevel id="VL58" nominalV="115.0" topologyKind="BUS_BREAKER">
            <iidm:busBreakerTopology>
                <iidm:bus id="B58" v="114.057" angle="-5.99"/>
            </iidm:busBreakerTopology>
            <iidm:load id="LB58" loadType="UNDEFINED" p0="14.0" q0="1.0" bus="B58" connectableBus="B58"/>
        </iidm:voltageLevel>
    </iidm:substation>
    <iidm:substation id="S188">
        <iidm:voltageLevel id="VL59" nominalV="115.0" topologyKind="BUS_BREAKER">
            <iidm:busBreakerTopology>
                <iidm:bus id="B59" v="112.5735" angle="-5.29"/>
            </iidm:busBreakerTopology>
            <iidm:load id="LB59" loadType="UNDEFINED" p0="218.0" q0="106.0" bus="B59" connectableBus="B59"/>
        </iidm:voltageLevel>
    </iidm:substation>
    <iidm:substation id="S177">
        <iidm:voltageLevel id="VL60" nominalV="230.0" topologyKind="BUS_BREAKER">
            <iidm:busBreakerTopology>
                <iidm:bus id="B60" v="235.658" angle="-9.56"/>
            </iidm:busBreakerTopology>
        </iidm:voltageLevel>
    </iidm:substation>
    <iidm:substation id="S2">
        <iidm:voltageLevel id="VL61" nominalV="115.0" topologyKind="BUS_BREAKER">
            <iidm:busBreakerTopology>
                <iidm:bus id="B61" v="113.91900000000001" angle="-3.47"/>
            </iidm:busBreakerTopology>
            <iidm:load id="LB61" loadType="UNDEFINED" p0="227.0" q0="110.0" bus="B61" connectableBus="B61"/>
        </iidm:voltageLevel>
        <iidm:voltageLevel id="VL62" nominalV="230.0" topologyKind="BUS_BREAKER">
            <iidm:busBreakerTopology>
                <iidm:bus id="B62" v="233.68" angle="-1.1"/>
            </iidm:busBreakerTopology>
        </iidm:voltageLevel>
        <iidm:voltageLevel id="VL7061" nominalV="13.8" topologyKind="BUS_BREAKER">
            <iidm:busBreakerTopology>
                <iidm:bus id="B7061" v="14.0001" angle="1.97"/>
            </iidm:busBreakerTopology>
            <iidm:generator id="G7061-0" energySource="OTHER" minP="0.0" maxP="500.0" voltageRegulatorOn="true" targetP="400.0" targetV="1.0145" targetQ="0.0" bus="B7061" connectableBus="B7061">
                <iidm:minMaxReactiveLimits minQ="-150.0" maxQ="150.0"/>
            </iidm:generator>
        </iidm:voltageLevel>
        <iidm:voltageLevel id="VL7062" nominalV="13.8" topologyKind="BUS_BREAKER">
            <iidm:busBreakerTopology>
                <iidm:bus id="B7062" v="13.82346" angle="5.8"/>
            </iidm:busBreakerTopology>
            <iidm:generator id="G7062-0" energySource="OTHER" minP="0.0" maxP="500.0" voltageRegulatorOn="true" targetP="400.0" targetV="1.0017" targetQ="0.0" bus="B7062" connectableBus="B7062">
                <iidm:minMaxReactiveLimits minQ="0.0" maxQ="150.0"/>
            </iidm:generator>
        </iidm:voltageLevel>
        <iidm:twoWindingsTransformer id="T62-61-0" r="0.0" x="780.275" g="0.0" b="0.0" ratedU1="224.25" ratedU2="115.0" bus1="B62" connectableBus1="B62" voltageLevelId1="VL62" bus2="B61" connectableBus2="B61" voltageLevelId2="VL61"/>
        <iidm:twoWindingsTransformer id="T7061-61-0" r="0.0" x="314.755" g="0.0" b="0.0" ratedU1="13.8" ratedU2="115.0" bus1="B7061" connectableBus1="B7061" voltageLevelId1="VL7061" bus2="B61" connectableBus2="B61" voltageLevelId2="VL61"/>
        <iidm:twoWindingsTransformer id="T7062-62-0" r="0.0" x="1700.2060000000001" g="0.0" b="0.0" ratedU1="13.11" ratedU2="230.0" bus1="B7062" connectableBus1="B7062" voltageLevelId1="VL7062" bus2="B62" connectableBus2="B62" voltageLevelId2="VL62"/>
    </iidm:substation>
    <iidm:substation id="S178">
        <iidm:voltageLevel id="VL63" nominalV="115.0" topologyKind="BUS_BREAKER">
            <iidm:busBreakerTopology>
                <iidm:bus id="B63" v="110.20450000000001" angle="-17.62"/>
            </iidm:busBreakerTopology>
            <iidm:generator id="G63-0" energySource="OTHER" minP="0.0" maxP="100.0" voltageRegulatorOn="true" targetP="0.0" targetV="0.9583" targetQ="0.0" bus="B63" connectableBus="B63">
                <iidm:minMaxReactiveLimits minQ="-25.0" maxQ="25.0"/>
            </iidm:generator>
            <iidm:load id="LB63" loadType="UNDEFINED" p0="70.0" q0="30.0" bus="B63" connectableBus="B63"/>
        </iidm:voltageLevel>
        <iidm:voltageLevel id="VL64" nominalV="230.0" topologyKind="BUS_BREAKER">
            <iidm:busBreakerTopology>
                <iidm:bus id="B64" v="218.04" angle="-12.97"/>
            </iidm:busBreakerTopology>
        </iidm:voltageLevel>
        <iidm:twoWindingsTransformer id="T63-64-0" r="0.0" x="2010.2" g="0.0" b="0.0" ratedU1="116.95499999999998" ratedU2="230.0" bus1="B63" connectableBus1="B63" voltageLevelId1="VL63" bus2="B64" connectableBus2="B64" voltageLevelId2="VL64"/>
    </iidm:substation>
    <iidm:substation id="S176">
        <iidm:voltageLevel id="VL69" nominalV="115.0" topologyKind="BUS_BREAKER">
            <iidm:busBreakerTopology>
                <iidm:bus id="B69" v="110.74499999999999" angle="-25.66"/>
            </iidm:busBreakerTopology>
        </iidm:voltageLevel>
        <iidm:voltageLevel id="VL201" nominalV="66.0" topologyKind="BUS_BREAKER">
            <iidm:busBreakerTopology>
                <iidm:bus id="B201" v="63.9672" angle="-27.49"/>
            </iidm:busBreakerTopology>
            <iidm:load id="LB201" loadType="UNDEFINED" p0="41.0" q0="14.0" bus="B201" connectableBus="B201"/>
        </iidm:voltageLevel>
        <iidm:twoWindingsTransformer id="T201-69-0" r="0.0" x="1296.05" g="0.0" b="0.0" ratedU1="67.98" ratedU2="115.0" bus1="B201" connectableBus1="B201" voltageLevelId1="VL201" bus2="B69" connectableBus2="B69" voltageLevelId2="VL69"/>
    </iidm:substation>
    <iidm:substation id="S21">
        <iidm:voltageLevel id="VL70" nominalV="115.0" topologyKind="BUS_BREAKER">
            <iidm:busBreakerTopology>
                <iidm:bus id="B70" v="109.3995" angle="-35.16"/>
            </iidm:busBreakerTopology>
            <iidm:load id="LB70" loadType="UNDEFINED" p0="56.0" q0="20.0" bus="B70" connectableBus="B70"/>
        </iidm:voltageLevel>
    </iidm:substation>
    <iidm:substation id="S19">
        <iidm:voltageLevel id="VL71" nominalV="115.0" topologyKind="BUS_BREAKER">
            <iidm:busBreakerTopology>
                <iidm:bus id="B71" v="112.61949999999999" angle="-29.88"/>
            </iidm:busBreakerTopology>
            <iidm:load id="LB71" loadType="UNDEFINED" p0="116.0" q0="38.0" bus="B71" connectableBus="B71"/>
        </iidm:voltageLevel>
        <iidm:voltageLevel id="VL7071" nominalV="13.8" topologyKind="BUS_BREAKER">
            <iidm:busBreakerTopology>
                <iidm:bus id="B7071" v="13.65234" angle="-25.35"/>
            </iidm:busBreakerTopology>
            <iidm:generator id="G7071-0" energySource="OTHER" minP="0.0" maxP="216.0" voltageRegulatorOn="true" targetP="116.0" targetV="0.9893" targetQ="0.0" bus="B7071" connectableBus="B7071">
                <iidm:minMaxReactiveLimits minQ="0.0" maxQ="87.0"/>
            </iidm:generator>
        </iidm:voltageLevel>
        <iidm:twoWindingsTransformer id="T7071-71-0" r="0.0" x="911.9959999999999" g="0.0" b="0.0" ratedU1="13.199700000000002" ratedU2="115.0" bus1="B7071" connectableBus1="B7071" voltageLevelId1="VL7071" bus2="B71" connectableBus2="B71" voltageLevelId2="VL71"/>
    </iidm:substation>
    <iidm:substation id="S23">
        <iidm:voltageLevel id="VL72" nominalV="115.0" topologyKind="BUS_BREAKER">
            <iidm:busBreakerTopology>
                <iidm:bus id="B72" v="111.504" angle="-27.48"/>
            </iidm:busBreakerTopology>
            <iidm:load id="LB72" loadType="UNDEFINED" p0="57.0" q0="19.0" bus="B72" connectableBus="B72"/>
        </iidm:voltageLevel>
    </iidm:substation>
    <iidm:substation id="S25">
        <iidm:voltageLevel id="VL73" nominalV="115.0" topologyKind="BUS_BREAKER">
            <iidm:busBreakerTopology>
                <iidm:bus id="B73" v="112.41250000000001" angle="-25.77"/>
            </iidm:busBreakerTopology>
            <iidm:load id="LB73" loadType="UNDEFINED" p0="224.0" q0="71.0" bus="B73" connectableBus="B73"/>
        </iidm:voltageLevel>
        <iidm:voltageLevel id="VL74" nominalV="230.0" topologyKind="BUS_BREAKER">
            <iidm:busBreakerTopology>
                <iidm:bus id="B74" v="229.172" angle="-22.0"/>
            </iidm:busBreakerTopology>
        </iidm:voltageLevel>
        <iidm:twoWindingsTransformer id="T73-74-0" r="0.0" x="1290.76" g="0.0" b="0.0" ratedU1="115.0" ratedU2="230.0" bus1="B73" connectableBus1="B73" voltageLevelId1="VL73" bus2="B74" connectableBus2="B74" voltageLevelId2="VL74"/>
    </iidm:substation>
    <iidm:substation id="S26">
        <iidm:voltageLevel id="VL76" nominalV="115.0" topologyKind="BUS_BREAKER">
            <iidm:busBreakerTopology>
                <iidm:bus id="B76" v="110.768" angle="-26.54"/>
            </iidm:busBreakerTopology>
            <iidm:generator id="G76-0" energySource="OTHER" minP="0.0" maxP="100.0" voltageRegulatorOn="true" targetP="0.0" targetV="0.9632" targetQ="0.0" bus="B76" connectableBus="B76">
                <iidm:minMaxReactiveLimits minQ="12.0" maxQ="35.0"/>
            </iidm:generator>
            <iidm:load id="LB76" loadType="UNDEFINED" p0="208.0" q0="107.0" bus="B76" connectableBus="B76"/>
        </iidm:voltageLevel>
    </iidm:substation>
    <iidm:substation id="S28">
        <iidm:voltageLevel id="VL77" nominalV="115.0" topologyKind="BUS_BREAKER">
            <iidm:busBreakerTopology>
                <iidm:bus id="B77" v="113.1255" angle="-24.94"/>
            </iidm:busBreakerTopology>
            <iidm:load id="LB77" loadType="UNDEFINED" p0="74.0" q0="28.0" bus="B77" connectableBus="B77"/>
        </iidm:voltageLevel>
    </iidm:substation>
    <iidm:substation id="S29">
        <iidm:voltageLevel id="VL78" nominalV="115.0" topologyKind="BUS_BREAKER">
            <iidm:busBreakerTopology>
                <iidm:bus id="B78" v="113.85" angle="-24.05"/>
            </iidm:busBreakerTopology>
        </iidm:voltageLevel>
    </iidm:substation>
    <iidm:substation id="S22">
        <iidm:voltageLevel id="VL79" nominalV="115.0" topologyKind="BUS_BREAKER">
            <iidm:busBreakerTopology>
                <iidm:bus id="B79" v="112.92999999999999" angle="-24.97"/>
            </iidm:busBreakerTopology>
            <iidm:load id="LB79" loadType="UNDEFINED" p0="48.0" q0="14.0" bus="B79" connectableBus="B79"/>
        </iidm:voltageLevel>
    </iidm:substation>
    <iidm:substation id="S5">
        <iidm:voltageLevel id="VL80" nominalV="115.0" topologyKind="BUS_BREAKER">
            <iidm:busBreakerTopology>
                <iidm:bus id="B80" v="113.52799999999999" angle="-24.97"/>
            </iidm:busBreakerTopology>
            <iidm:load id="LB80" loadType="UNDEFINED" p0="28.0" q0="7.0" bus="B80" connectableBus="B80"/>
        </iidm:voltageLevel>
    </iidm:substation>
    <iidm:substation id="S6">
        <iidm:voltageLevel id="VL81" nominalV="345.0" topologyKind="BUS_BREAKER">
            <iidm:busBreakerTopology>
                <iidm:bus id="B81" v="356.73" angle="-18.89"/>
            </iidm:busBreakerTopology>
        </iidm:voltageLevel>
        <iidm:voltageLevel id="VL88" nominalV="230.0" topologyKind="BUS_BREAKER">
            <iidm:busBreakerTopology>
                <iidm:bus id="B88" v="233.47299999999998" angle="-20.96"/>
            </iidm:busBreakerTopology>
        </iidm:voltageLevel>
        <iidm:twoWindingsTransformer id="T81-88-0" r="0.0" x="1058.0" g="0.0" b="0.0" ratedU1="345.0" ratedU2="230.0" bus1="B81" connectableBus1="B81" voltageLevelId1="VL81" bus2="B88" connectableBus2="B88" voltageLevelId2="VL88"/>
    </iidm:substation>
    <iidm:substation id="S9">
        <iidm:voltageLevel id="VL84" nominalV="115.0" topologyKind="BUS_BREAKER">
            <iidm:busBreakerTopology>
                <iidm:bus id="B84" v="117.87499999999999" angle="-17.16"/>
            </iidm:busBreakerTopology>
            <iidm:generator id="G84-0" energySource="OTHER" minP="0.0" maxP="475.0" voltageRegulatorOn="true" targetP="375.0" targetV="1.025" targetQ="0.0" bus="B84" connectableBus="B84">
                <iidm:minMaxReactiveLimits minQ="-240.0" maxQ="240.0"/>
            </iidm:generator>
            <iidm:load id="LB84" loadType="UNDEFINED" p0="37.0" q0="13.0" bus="B84" connectableBus="B84"/>
        </iidm:voltageLevel>
    </iidm:substation>
    <iidm:substation id="S12">
        <iidm:voltageLevel id="VL85" nominalV="230.0" topologyKind="BUS_BREAKER">
            <iidm:busBreakerTopology>
                <iidm:bus id="B85" v="227.05599999999998" angle="-17.68"/>
            </iidm:busBreakerTopology>
        </iidm:voltageLevel>
        <iidm:voltageLevel id="VL99" nominalV="115.0" topologyKind="BUS_BREAKER">
            <iidm:busBreakerTopology>
                <iidm:bus id="B99" v="113.78099999999999" angle="-20.27"/>
            </iidm:busBreakerTopology>
            <iidm:load id="LB99" loadType="UNDEFINED" p0="83.5" q0="0.0" bus="B99" connectableBus="B99"/>
        </iidm:voltageLevel>
        <iidm:twoWindingsTransformer id="T85-99-0" r="0.0" x="634.8000000000001" g="0.0" b="0.0" ratedU1="230.0" ratedU2="115.0" bus1="B85" connectableBus1="B85" voltageLevelId1="VL85" bus2="B99" connectableBus2="B99" voltageLevelId2="VL99"/>
    </iidm:substation>
    <iidm:substation id="S14">
        <iidm:voltageLevel id="VL86" nominalV="230.0" topologyKind="BUS_BREAKER">
            <iidm:busBreakerTopology>
                <iidm:bus id="B86" v="227.907" angle="-14.19"/>
            </iidm:busBreakerTopology>
        </iidm:voltageLevel>
        <iidm:voltageLevel id="VL102" nominalV="115.0" topologyKind="BUS_BREAKER">
            <iidm:busBreakerTopology>
                <iidm:bus id="B102" v="115.09199999999998" angle="-15.23"/>
            </iidm:busBreakerTopology>
            <iidm:load id="LB102" loadType="UNDEFINED" p0="77.8" q0="0.0" bus="B102" connectableBus="B102"/>
        </iidm:voltageLevel>
        <iidm:twoWindingsTransformer id="T86-102-0" r="0.0" x="634.8000000000001" g="0.0" b="0.0" ratedU1="230.0" ratedU2="115.0" bus1="B86" connectableBus1="B86" voltageLevelId1="VL86" bus2="B102" connectableBus2="B102" voltageLevelId2="VL102"/>
    </iidm:substation>
    <iidm:substation id="S16">
        <iidm:voltageLevel id="VL87" nominalV="230.0" topologyKind="BUS_BREAKER">
            <iidm:busBreakerTopology>
                <iidm:bus id="B87" v="228.183" angle="-7.77"/>
            </iidm:busBreakerTopology>
        </iidm:voltageLevel>
        <iidm:voltageLevel id="VL94" nominalV="115.0" topologyKind="BUS_BREAKER">
            <iidm:busBreakerTopology>
                <iidm:bus id="B94" v="114.195" angle="-9.42"/>
            </iidm:busBreakerTopology>
            <iidm:load id="LB94" loadType="UNDEFINED" p0="60.3" q0="0.0" bus="B94" connectableBus="B94"/>
        </iidm:voltageLevel>
        <iidm:twoWindingsTransformer id="T87-94-0" r="0.0" x="608.35" g="0.0" b="0.0" ratedU1="233.45" ratedU2="115.0" bus1="B87" connectableBus1="B87" voltageLevelId1="VL87" bus2="B94" connectableBus2="B94" voltageLevelId2="VL94"/>
    </iidm:substation>
    <iidm:substation id="S18">
        <iidm:voltageLevel id="VL89" nominalV="115.0" topologyKind="BUS_BREAKER">
            <iidm:busBreakerTopology>
                <iidm:bus id="B89" v="118.64550000000001" angle="-11.13"/>
            </iidm:busBreakerTopology>
            <iidm:load id="LB89" loadType="UNDEFINED" p0="44.2" q0="0.0" bus="B89" connectableBus="B89"/>
        </iidm:voltageLevel>
    </iidm:substation>
    <iidm:substation id="S43">
        <iidm:voltageLevel id="VL90" nominalV="115.0" topologyKind="BUS_BREAKER">
            <iidm:busBreakerTopology>
                <iidm:bus id="B90" v="118.12799999999999" angle="-11.23"/>
            </iidm:busBreakerTopology>
            <iidm:load id="LB90" loadType="UNDEFINED" p0="66.0" q0="0.0" bus="B90" connectableBus="B90"/>
        </iidm:voltageLevel>
    </iidm:substation>
    <iidm:substation id="S44">
        <iidm:voltageLevel id="VL91" nominalV="115.0" topologyKind="BUS_BREAKER">
            <iidm:busBreakerTopology>
                <iidm:bus id="B91" v="120.98" angle="-9.4"/>
            </iidm:busBreakerTopology>
            <iidm:generator id="G91-0" energySource="OTHER" minP="0.0" maxP="255.0" voltageRegulatorOn="true" targetP="155.0" targetV="1.052" targetQ="0.0" bus="B91" connectableBus="B91">
                <iidm:minMaxReactiveLimits minQ="-11.0" maxQ="96.0"/>
            </iidm:generator>
            <iidm:load id="LB91" loadType="UNDEFINED" p0="17.4" q0="0.0" bus="B91" connectableBus="B91"/>
        </iidm:voltageLevel>
    </iidm:substation>
    <iidm:substation id="S45">
        <iidm:voltageLevel id="VL92" nominalV="115.0" topologyKind="BUS_BREAKER">
            <iidm:busBreakerTopology>
                <iidm:bus id="B92" v="120.98" angle="-6.2"/>
            </iidm:busBreakerTopology>
            <iidm:generator id="G92-0" energySource="OTHER" minP="0.0" maxP="390.0" voltageRegulatorOn="true" targetP="290.0" targetV="1.052" targetQ="0.0" bus="B92" connectableBus="B92">
                <iidm:minMaxReactiveLimits minQ="-153.0" maxQ="153.0"/>
            </iidm:generator>
            <iidm:load id="LB92" loadType="UNDEFINED" p0="15.8" q0="0.0" bus="B92" connectableBus="B92"/>
        </iidm:voltageLevel>
    </iidm:substation>
    <iidm:substation id="S46">
        <iidm:voltageLevel id="VL97" nominalV="115.0" topologyKind="BUS_BREAKER">
            <iidm:busBreakerTopology>
                <iidm:bus id="B97" v="117.1045" angle="-13.24"/>
            </iidm:busBreakerTopology>
            <iidm:load id="LB97" loadType="UNDEFINED" p0="39.9" q0="0.0" bus="B97" connectableBus="B97"/>
        </iidm:voltageLevel>
    </iidm:substation>
    <iidm:substation id="S47">
        <iidm:voltageLevel id="VL98" nominalV="115.0" topologyKind="BUS_BREAKER">
            <iidm:busBreakerTopology>
                <iidm:bus id="B98" v="115.0" angle="-14.6"/>
            </iidm:busBreakerTopology>
            <iidm:generator id="G98-0" energySource="OTHER" minP="0.0" maxP="168.0" voltageRegulatorOn="true" targetP="68.0" targetV="1.0" targetQ="0.0" bus="B98" connectableBus="B98">
                <iidm:minMaxReactiveLimits minQ="-30.0" maxQ="56.0"/>
            </iidm:generator>
            <iidm:load id="LB98" loadType="UNDEFINED" p0="66.7" q0="0.0" bus="B98" connectableBus="B98"/>
        </iidm:voltageLevel>
    </iidm:substation>
    <iidm:substation id="S163">
        <iidm:voltageLevel id="VL100" nominalV="115.0" topologyKind="BUS_BREAKER">
            <iidm:busBreakerTopology>
                <iidm:bus id="B100" v="115.69" angle="-14.45"/>
            </iidm:busBreakerTopology>
        </iidm:voltageLevel>
    </iidm:substation>
    <iidm:substation id="S161">
        <iidm:voltageLevel id="VL103" nominalV="115.0" topologyKind="BUS_BREAKER">
            <iidm:busBreakerTopology>
                <iidm:bus id="B103" v="118.312" angle="-12.06"/>
            </iidm:busBreakerTopology>
            <iidm:load id="LB103" loadType="UNDEFINED" p0="32.0" q0="0.0" bus="B103" connectableBus="B103"/>
        </iidm:voltageLevel>
    </iidm:substation>
    <iidm:substation id="S159">
        <iidm:voltageLevel id="VL104" nominalV="115.0" topologyKind="BUS_BREAKER">
            <iidm:busBreakerTopology>
                <iidm:bus id="B104" v="114.517" angle="-17.33"/>
            </iidm:busBreakerTopology>
            <iidm:load id="LB104" loadType="UNDEFINED" p0="8.6" q0="0.0" bus="B104" connectableBus="B104"/>
        </iidm:voltageLevel>
    </iidm:substation>
    <iidm:substation id="S126">
        <iidm:voltageLevel id="VL105" nominalV="115.0" topologyKind="BUS_BREAKER">
            <iidm:busBreakerTopology>
                <iidm:bus id="B105" v="117.5645" angle="-12.94"/>
            </iidm:busBreakerTopology>
            <iidm:load id="LB105" loadType="UNDEFINED" p0="49.6" q0="0.0" bus="B105" connectableBus="B105"/>
        </iidm:voltageLevel>
    </iidm:substation>
    <iidm:substation id="S123">
        <iidm:voltageLevel id="VL107" nominalV="115.0" topologyKind="BUS_BREAKER">
            <iidm:busBreakerTopology>
                <iidm:bus id="B107" v="116.0925" angle="-16.03"/>
            </iidm:busBreakerTopology>
            <iidm:load id="LB107" loadType="UNDEFINED" p0="4.6" q0="0.0" bus="B107" connectableBus="B107"/>
        </iidm:voltageLevel>
    </iidm:substation>
    <iidm:substation id="S122">
        <iidm:voltageLevel id="VL108" nominalV="115.0" topologyKind="BUS_BREAKER">
            <iidm:busBreakerTopology>
                <iidm:bus id="B108" v="113.85" angle="-20.26"/>
            </iidm:busBreakerTopology>
            <iidm:generator id="G108-0" energySource="OTHER" minP="0.0" maxP="217.0" voltageRegulatorOn="true" targetP="117.0" targetV="0.99" targetQ="0.0" bus="B108" connectableBus="B108">
                <iidm:minMaxReactiveLimits minQ="-24.0" maxQ="77.0"/>
            </iidm:generator>
            <iidm:load id="LB108" loadType="UNDEFINED" p0="112.1" q0="0.0" bus="B108" connectableBus="B108"/>
        </iidm:voltageLevel>
    </iidm:substation>
    <iidm:substation id="S120">
        <iidm:voltageLevel id="VL109" nominalV="115.0" topologyKind="BUS_BREAKER">
            <iidm:busBreakerTopology>
                <iidm:bus id="B109" v="112.1135" angle="-26.06"/>
            </iidm:busBreakerTopology>
            <iidm:load id="LB109" loadType="UNDEFINED" p0="30.7" q0="0.0" bus="B109" connectableBus="B109"/>
        </iidm:voltageLevel>
    </iidm:substation>
    <iidm:substation id="S113">
        <iidm:voltageLevel id="VL110" nominalV="115.0" topologyKind="BUS_BREAKER">
            <iidm:busBreakerTopology>
                <iidm:bus id="B110" v="111.895" angle="-24.72"/>
            </iidm:busBreakerTopology>
            <iidm:load id="LB110" loadType="UNDEFINED" p0="63.0" q0="0.0" bus="B110" connectableBus="B110"/>
        </iidm:voltageLevel>
    </iidm:substation>
    <iidm:substation id="S110">
        <iidm:voltageLevel id="VL112" nominalV="115.0" topologyKind="BUS_BREAKER">
            <iidm:busBreakerTopology>
                <iidm:bus id="B112" v="111.8375" angle="-28.69"/>
            </iidm:busBreakerTopology>
            <iidm:load id="LB112" loadType="UNDEFINED" p0="19.6" q0="0.0" bus="B112" connectableBus="B112"/>
        </iidm:voltageLevel>
    </iidm:substation>
    <iidm:substation id="S109">
        <iidm:voltageLevel id="VL113" nominalV="115.0" topologyKind="BUS_BREAKER">
            <iidm:busBreakerTopology>
                <iidm:bus id="B113" v="111.55" angle="-25.38"/>
            </iidm:busBreakerTopology>
            <iidm:load id="LB113" loadType="UNDEFINED" p0="26.2" q0="0.0" bus="B113" connectableBus="B113"/>
        </iidm:voltageLevel>
    </iidm:substation>
    <iidm:substation id="S107">
        <iidm:voltageLevel id="VL114" nominalV="115.0" topologyKind="BUS_BREAKER">
            <iidm:busBreakerTopology>
                <iidm:bus id="B114" v="112.0905" angle="-28.59"/>
            </iidm:busBreakerTopology>
            <iidm:load id="LB114" loadType="UNDEFINED" p0="18.2" q0="0.0" bus="B114" connectableBus="B114"/>
        </iidm:voltageLevel>
        <iidm:voltageLevel id="VL207" nominalV="66.0" topologyKind="BUS_BREAKER">
            <iidm:busBreakerTopology>
                <iidm:bus id="B207" v="66.9042" angle="-27.44"/>
            </iidm:busBreakerTopology>
            <iidm:load id="LB207" loadType="UNDEFINED" p0="-21.0" q0="-14.2" bus="B207" connectableBus="B207"/>
        </iidm:voltageLevel>
        <iidm:twoWindingsTransformer id="T114-207-0" r="0.0" x="649.044" g="0.0" b="0.0" ratedU1="111.205" ratedU2="66.0" bus1="B114" connectableBus1="B114" voltageLevelId1="VL114" bus2="B207" connectableBus2="B207" voltageLevelId2="VL207"/>
    </iidm:substation>
    <iidm:substation id="S105">
        <iidm:voltageLevel id="VL115" nominalV="115.0" topologyKind="BUS_BREAKER">
            <iidm:busBreakerTopology>
                <iidm:bus id="B115" v="110.4345" angle="-13.57"/>
            </iidm:busBreakerTopology>
        </iidm:voltageLevel>
        <iidm:voltageLevel id="VL121" nominalV="115.0" topologyKind="BUS_BREAKER">
            <iidm:busBreakerTopology>
                <iidm:bus id="B121" v="113.5165" angle="-12.64"/>
            </iidm:busBreakerTopology>
            <iidm:load id="LB121" loadType="UNDEFINED" p0="535.0" q0="55.0" bus="B121" connectableBus="B121"/>
        </iidm:voltageLevel>
        <iidm:twoWindingsTransformer id="T121-115-0" r="0.0" x="370.3" g="0.0" b="0.0" ratedU1="120.75" ratedU2="115.0" bus1="B121" connectableBus1="B121" voltageLevelId1="VL121" bus2="B115" connectableBus2="B115" voltageLevelId2="VL115"/>
    </iidm:substation>
    <iidm:substation id="S88">
        <iidm:voltageLevel id="VL116" nominalV="115.0" topologyKind="BUS_BREAKER">
            <iidm:busBreakerTopology>
                <iidm:bus id="B116" v="117.86349999999999" angle="-12.69"/>
            </iidm:busBreakerTopology>
        </iidm:voltageLevel>
        <iidm:voltageLevel id="VL124" nominalV="115.0" topologyKind="BUS_BREAKER">
            <iidm:busBreakerTopology>
                <iidm:bus id="B124" v="117.6795" angle="-13.49"/>
            </iidm:busBreakerTopology>
...